[TITLE]
DESCRIPTION  
 DESCRIPTION  

[JUNCTIONS]
;ID              	Elev        	Demand      	Pattern         
 1               	10.0000     	1.007988    	1291            	;
 2               	10.2066     	0.755991    	1291            	;
 3               	8.0000      	0.719992    	1291            	;
 4               	10.3304     	0.287997    	1291            	;
 5               	10.0000     	1.223986    	1291            	;
 6               	11.4204     	0.503994    	1291            	;
 7               	10.0000     	0.323996    	1291            	;
 8               	10.0000     	0.107999    	1291            	;
 9               	10.0000     	0.179998    	1291            	;
 10              	6.0000      	0.683992    	1291            	;
 11              	9.6258      	0.251997    	1291            	;
 12              	10.7044     	0.215997    	1291            	;
 13              	6.0000      	0.539994    	1291            	;
 14              	4.0000      	1.655981    	1291            	;
 15              	10.8638     	0.251997    	1291            	;
 16              	10.9002     	0.251997    	1291            	;
 17              	8.0000      	0.611993    	1291            	;
 18              	9.0738      	0.179998    	1291            	;
 19              	11.7501     	0.503994    	1291            	;
 20              	9.0448      	0.143998    	1291            	;
 21              	8.4986      	1.007988    	1291            	;
 22              	6.5178      	0.359996    	1291            	;
 23              	11.0676     	0.611993    	1291            	;
 24              	10.9409     	0.287997    	1291            	;
 25              	8.2174      	0.359996    	1291            	;
 26              	7.8558      	0.575993    	1291            	;
 27              	8.7833      	0.287997    	1291            	;
 28              	4.7973      	0.647992    	1291            	;
 29              	8.0000      	1.115987    	1291            	;
 30              	6.5252      	0.539994    	1291            	;
 31              	7.4202      	0.863990    	1291            	;
 32              	6.6906      	0.251997    	1291            	;
 33              	7.5703      	1.511982    	1291            	;
 34              	6.8307      	0.215997    	1291            	;
 35              	5.6450      	0.827990    	1291            	;
 36              	3.8051      	0.719992    	1291            	;
 37              	6.7843      	0.539994    	1291            	;
 38              	6.0000      	0.359996    	1291            	;
 39              	4.3293      	1.223986    	1291            	;
 40              	6.0000      	0.287997    	1291            	;
 41              	4.8989      	0.683992    	1291            	;
 42              	6.0000      	1.079987    	1291            	;
 43              	6.0000      	1.079987    	1291            	;
 44              	7.7923      	0.791991    	1291            	;
 45              	5.0957      	0.791991    	1291            	;
 46              	5.4284      	1.331984    	1291            	;
 47              	8.0000      	0.251997    	1291            	;
 48              	2.0000      	0.719992    	1291            	;
 49              	6.0000      	0.503994    	1291            	;
 50              	5.4429      	0.647992    	1291            	;
 51              	5.5449      	0.215997    	1291            	;
 52              	5.5153      	0.359996    	1291            	;
 53              	2.2205      	0.827990    	1291            	;
 54              	2.0000      	1.403983    	1291            	;
 55              	2.0000      	0.683992    	1291            	;
 56              	6.8929      	0.179998    	1291            	;
 57              	6.8776      	0.611993    	1291            	;
 58              	6.4676      	0.107999    	1291            	;
 59              	6.0000      	1.295985    	1291            	;
 60              	3.8157      	0.971989    	1291            	;
 61              	4.0000      	0.215997    	1291            	;
 62              	8.0000      	0.323996    	1291            	;
 63              	4.0000      	0.683992    	1291            	;
 64              	8.0000      	0.971989    	1291            	;
 65              	4.0000      	0.539994    	1291            	;
 66              	4.0000      	1.115987    	1291            	;
 67              	4.0000      	0.179998    	1291            	;
 68              	4.0000      	0.000000    	                	;
 69              	4.0000      	0.143998    	1291            	;
 70              	8.0000      	0.107999    	1291            	;
 71              	4.0000      	0.107999    	1291            	;
 72              	4.0000      	0.431995    	1291            	;
 73              	4.0000      	0.215997    	1291            	;
 74              	4.0000      	0.000000    	                	;
 75              	4.0000      	0.000000    	                	;
 76              	8.0000      	0.719992    	1291            	;
 77              	4.0000      	0.000000    	                	;
 78              	8.0000      	0.503994    	1291            	;
 79              	4.0000      	0.215997    	1291            	;
 80              	4.0000      	0.359996    	1291            	;
 81              	4.0000      	0.359996    	1291            	;
 82              	8.0000      	1.547982    	1291            	;
 83              	4.0000      	0.287997    	1291            	;
 84              	4.0000      	0.000000    	                	;
 85              	4.0000      	0.359996    	1291            	;
 86              	4.0000      	0.000000    	1291            	;
 87              	4.0000      	0.036000    	1291            	;
 88              	4.0000      	1.007988    	1291            	;
 89              	4.0000      	1.187986    	1291            	;
 90              	4.0000      	0.287997    	1291            	;

[RESERVOIRS]
;ID              	Head        	Pattern         
 R-1             	53.7        	                	;
 R-2             	55          	                	;

[TANKS]
;ID              	Elevation   	InitLevel   	MinLevel    	MaxLevel    	Diameter    	MinVol      	VolCurve        	Overflow

[PIPES]
;ID              	Node1           	Node2           	Length      	Diameter    	Roughness   	MinorLoss   	Status
 1               	1               	2               	61.6238     	100.0000    	1.5000      	0.0000      	Open  	;
 2               	3               	1               	87.9854     	99.4000     	1.5000      	0.0000      	Open  	;
 3               	3               	5               	197.2303    	99.4000     	1.5000      	0.0000      	Open  	;
 4               	7               	5               	41.3387     	100.0000    	1.5000      	0.0000      	Open  	;
 5               	8               	7               	14.6813     	100.0000    	1.5000      	0.0000      	Open  	;
 6               	1               	8               	341.0429    	100.0000    	1.5000      	0.0000      	Open  	; 
 7               	9               	8               	16.0318     	100.0000    	1.5000      	0.0000      	Open  	; 
 8               	10              	3               	118.9680    	99.4000     	1.5000      	0.0000      	Open  	;
 9               	9               	11              	24.9324     	150.0000    	1.5000      	0.0000      	Open  	;
 10              	11              	4               	63.4383     	144.6000    	1.5000      	0.0000      	Open  	;
 11              	13              	10              	35.4938     	100.0000    	1.5000      	0.0000      	Open  	;
 12              	15              	12              	70.5392     	99.4000     	1.5000      	0.0000      	Open  	;
 13              	15              	16              	5.5032      	200.0000    	1.5000      	0.0000      	Open  	;
 14              	R-1             	16              	67.3193     	200.0000    	1.5000      	0.0000      	CV    	;
 15              	17              	9               	73.7128     	150.0000    	1.5000      	0.0000      	Open  	;
 16              	11              	18              	89.3468     	150.0000    	1.5000      	0.0000      	Open  	;
 17              	18              	6               	108.5024    	100.0000    	1.5000      	0.0000      	Open  	;
 18              	20              	18              	14.9911     	150.0000    	1.5000      	0.0000      	Open  	;
 19              	10              	21              	184.0649    	100.0000    	1.5000      	0.0000      	Open  	;
 20              	21              	5               	126.7762    	100.0000    	1.5000      	0.0000      	Open  	;
 21              	16              	23              	80.7617     	100.0000    	1.5000      	0.0000      	Open  	;
 22              	19              	23              	34.0640     	100.0000    	1.5000      	0.0000      	Open  	;
 23              	23              	24              	7.4791      	100.0000    	1.5000      	0.0000      	Open  	;
 24              	25              	17              	101.0651    	100.0000    	1.5000      	0.0000      	Open  	;
 25              	25              	20              	35.0531     	100.0000    	1.5000      	0.0000      	Open  	;
 26              	13              	26              	183.0910    	100.0000    	1.5000      	0.0000      	Open  	;
 27              	26              	21              	35.2050     	100.0000    	1.5000      	0.0000      	Open  	;
 28              	27              	20              	63.0074     	150.0000    	1.5000      	0.0000      	Open  	;
 29              	27              	15              	86.1500     	200.0000    	1.5000      	0.0000      	Open  	;
 30              	28              	13              	119.0014    	100.0000    	1.5000      	0.0000      	Open  	;
 31              	30              	22              	130.4395    	100.0000    	1.5000      	0.0000      	Open  	;
 32              	31              	25              	71.1517     	100.0000    	1.5000      	0.0000      	Open  	;
 33              	30              	32              	23.1010     	100.0000    	1.5000      	0.0000      	Open  	;
 34              	32              	26              	75.0654     	100.0000    	1.5000      	0.0000      	Open  	;
 35              	33              	31              	105.3046    	100.0000    	1.5000      	0.0000      	Open  	;
 36              	33              	27              	126.2605    	150.0000    	1.5000      	0.0000      	Open  	;
 37              	32              	34              	74.5227     	100.0000    	1.5000      	0.0000      	Open  	;
 38              	34              	7               	273.4008    	100.0000    	1.5000      	0.0000      	Open  	;
 39              	28              	35              	147.8053    	100.0000    	1.5000      	0.0000      	Open  	;
 40              	35              	30              	61.9362     	100.0000    	1.5000      	0.0000      	Open  	;
 41              	36              	28              	88.6683     	100.0000    	1.5000      	0.0000      	Open  	;
 42              	34              	37              	13.9204     	100.0000    	1.5000      	0.0000      	Open  	;
 43              	37              	38              	45.3667     	100.0000    	1.5000      	0.0000      	Open  	;
 44              	38              	29              	114.8319    	100.0000    	1.5000      	0.0000      	Open  	;
 45              	39              	36              	80.4201     	100.0000    	1.5000      	0.0000      	Open  	;
 46              	40              	38              	6.1730      	100.0000    	1.5000      	0.0000      	Open  	;
 47              	39              	41              	48.4080     	100.0000    	1.5000      	0.0000      	Open  	;
 48              	41              	35              	70.4866     	100.0000    	1.5000      	0.0000      	Open  	;
 49              	42              	40              	40.7468     	100.0000    	1.5000      	0.0000      	Open  	;
 50              	42              	17              	220.2600    	150.0000    	1.5000      	0.0000      	Open  	;
 51              	43              	31              	181.6666    	100.0000    	1.5000      	0.0000      	Open  	;
 52              	43              	33              	105.9326    	150.0000    	1.5000      	0.0000      	Open  	;
 53              	44              	33              	130.1373    	100.0000    	1.5000      	0.0000      	Open  	;
 54              	41              	45              	52.0289     	100.0000    	1.5000      	0.0000      	Open  	;
 55              	45              	46              	43.9151     	100.0000    	1.5000      	0.0000      	Open  	;
 56              	46              	37              	117.9373    	100.0000    	1.5000      	0.0000      	Open  	;
 57              	44              	47              	42.4541     	100.0000    	1.5000      	0.0000      	Open  	;
 58              	48              	36              	159.3616    	100.0000    	1.5000      	0.0000      	Open  	;
 59              	50              	40              	98.4233     	100.0000    	1.5000      	0.0000      	Open  	;
 60              	51              	50              	50.6748     	99.4000     	1.5000      	0.0000      	Open  	;
 61              	51              	42              	92.7581     	150.0000    	1.5000      	0.0000      	Open  	;
 62              	52              	51              	4.2263      	150.0000    	1.5000      	0.0000      	Open  	;
 63              	53              	48              	70.0990     	100.0000    	1.5000      	0.0000      	Open  	;
 64              	53              	39              	175.9038    	100.0000    	1.5000      	0.0000      	Open  	;
 65              	49              	52              	122.4354    	100.0000    	1.5000      	0.0000      	Open  	;
 66              	48              	55              	120.1706    	100.0000    	1.5000      	0.0000      	Open  	;
 67              	54              	55              	38.1498     	100.0000    	1.5000      	0.0000      	Open  	;
 68              	57              	56              	33.8685     	100.0000    	1.5000      	0.0000      	Open  	;
 69              	57              	58              	22.7685     	100.0000    	1.5000      	0.0000      	Open  	;
 70              	59              	44              	228.7123    	100.0000    	1.5000      	0.0000      	Open  	;
 71              	59              	57              	157.0009    	100.0000    	1.5000      	0.0000      	Open  	;
 72              	60              	53              	127.3102    	100.0000    	1.5000      	0.0000      	Open  	;
 73              	60              	45              	196.0299    	100.0000    	1.5000      	0.0000      	Open  	;
 74              	60              	61              	64.9151     	100.0000    	1.5000      	0.0000      	Open  	;
 75              	61              	46              	185.2207    	100.0000    	1.5000      	0.0000      	Open  	;
 76              	56              	62              	125.1785    	100.0000    	1.5000      	0.0000      	Open  	;
 77              	61              	63              	5.1596      	100.0000    	1.5000      	0.0000      	Open  	;
 78              	64              	59              	78.5465     	100.0000    	1.5000      	0.0000      	Open  	;
 79              	65              	63              	63.4474     	100.0000    	1.5000      	0.0000      	Open  	;
 80              	65              	50              	168.4795    	100.0000    	1.5000      	0.0000      	Open  	;
 81              	67              	65              	52.7231     	100.0000    	1.5000      	0.0000      	Open  	;
 82              	52              	67              	173.2530    	150.0000    	1.5000      	0.0000      	Open  	;
 83              	64              	66              	108.3586    	100.0000    	1.5000      	0.0000      	Open  	;
 84              	68              	63              	53.6681     	100.0000    	1.5000      	0.0000      	Open  	;
 85              	69              	67              	30.3437     	66.0000     	1.5000      	0.0000      	Open  	;
 86              	56              	70              	357.2045    	100.0000    	1.5000      	0.0000      	Open  	;
 87              	71              	69              	50.1133     	150.0000    	1.5000      	0.0000      	Open  	;
 88              	71              	66              	44.3966     	150.0000    	1.5000      	0.0000      	Open  	;
 89              	73              	71              	14.4326     	100.0000    	1.5000      	0.0000      	Open  	;
 90              	72              	74              	25.4148     	100.0000    	1.5000      	0.0000      	Open  	;
 91              	68              	74              	43.1115     	100.0000    	1.5000      	0.0000      	Open  	;
 92              	75              	68              	92.0796     	100.0000    	1.5000      	0.0000      	Open  	;
 93              	69              	75              	87.1668     	55.4000     	1.5000      	0.0000      	Open  	;
 94              	76              	73              	91.3315     	100.0000    	1.5000      	0.0000      	Open  	;
 95              	77              	75              	68.0803     	100.0000    	1.5000      	0.0000      	Open  	;
 96              	79              	77              	35.8191     	100.0000    	1.5000      	0.0000      	Open  	;
 97              	73              	79              	58.0994     	100.0000    	1.5000      	0.0000      	Open  	;
 98              	80              	55              	285.4089    	100.0000    	1.5000      	0.0000      	Open  	;
 99              	80              	74              	60.7011     	100.0000    	1.5000      	0.0000      	Open  	;
 100             	76              	79              	107.8067    	100.0000    	1.5000      	0.0000      	Open  	;
 101             	77              	81              	43.8148     	99.4000     	1.5000      	0.0000      	Open  	;
 102             	76              	82              	116.3783    	100.0000    	1.5000      	0.0000      	Open  	;
 103             	82              	64              	185.0629    	100.0000    	1.5000      	0.0000      	Open  	;
 104             	82              	78              	207.0173    	100.0000    	1.5000      	0.0000      	Open  	;
 105             	84              	80              	107.0663    	100.0000    	1.5000      	0.0000      	Open  	;
 106             	84              	83              	8.4143      	99.4000     	1.5000      	0.0000      	Open  	;
 107             	85              	84              	13.3542     	100.0000    	1.5000      	0.0000      	Open  	;
 108             	79              	86              	95.5255     	100.0000    	1.5000      	0.0000      	Open  	;
 109             	86              	85              	48.6061     	100.0000    	1.5000      	0.0000      	Open  	;
 110             	86              	87              	62.7673     	100.0000    	1.5000      	0.0000      	Open  	;
 111             	88              	82              	181.3773    	100.0000    	1.5000      	0.0000      	Open  	;
 112             	87              	89              	16.2002     	100.0000    	1.5000      	0.0000      	Open  	;
 113             	89              	88              	163.0582    	100.0000    	1.5000      	0.0000      	Open  	;
 114             	88              	90              	87.0021     	100.0000    	1.5000      	0.0000      	Open  	;
 115             	90              	89              	92.1985     	100.0000    	1.5000      	0.0000      	Open  	;
 116             	90              	14              	8.8630      	100.0000    	1.5000      	0.0000      	Open  	;
 117             	47              	62              	50.0000     	100         	1.5000      	0.0000      	Open  	;
 118             	57              	78              	90.0000     	100.0000    	1.5000      	0.0000      	Open  	;
 119             	19              	62              	40.0000     	100.0000    	1.5000      	0.0000      	Open  	;
 120             	66              	43              	275.0567    	150.0000    	1.5000      	0.0000      	Open  	;
 121             	R-2             	55              	60          	200         	100         	0           	CV    	;

[PUMPS]
;ID              	Node1           	Node2           	Parameters

[VALVES]
;ID              	Node1           	Node2           	Diameter    	Type	Setting     	MinorLoss   

[TAGS]

[DEMANDS]
;Junction        	Demand      	Pattern         	Category

[STATUS]
;ID              	Status/Setting

[PATTERNS]
;ID              	Multipliers
;
 1291            	0.6590      	0.6200      	0.5570      	0.5330      	0.5040      	0.5180      
 1291            	0.5010      	0.4910      	0.5040      	0.5550      	0.6720      	0.8030      
 1291            	0.8980      	0.9280      	1.0100      	1.1080      	1.1800      	1.2630      
 1291            	1.2700      	1.2970      	1.3140      	1.2270      	1.3310      	1.3170      
 1291            	1.2460      	1.2240      	1.2610      	1.2700      	1.2730      	1.2220      
 1291            	1.2050      	1.2250      	1.1880      	1.2190      	1.1590      	1.1730      
 1291            	1.1830      	1.1810      	1.1540      	1.0930      	1.0760      	0.9910      
 1291            	0.9510      	0.9660      	0.9640      	0.9880      	0.9300      	0.8330      

[CURVES]
;ID              	X-Value     	Y-Value

[CONTROLS]






[RULES]






[ENERGY]
 Global Efficiency  	75.0000
 Global Price       	0
 Demand Charge      	0.0000

[EMITTERS]
;Junction        	Coefficient

[QUALITY]
;Node            	InitQual

[SOURCES]
;Node            	Type        	Quality     	Pattern

[REACTIONS]
;Type     	Pipe/Tank       	Coefficient


[REACTIONS]
 Order Bulk            	1.00
 Order Tank            	1.00
 Order Wall            	1
 Global Bulk           	0.000000
 Global Wall           	0.000000
 Limiting Potential    	0
 Roughness Correlation 	0

[MIXING]
;Tank            	Model

[TIMES]
 Duration           	24:00 
 Hydraulic Timestep 	0:30 
 Quality Timestep   	0:05 
 Pattern Timestep   	0:30 
 Pattern Start      	0:00 
 Report Timestep    	0:30 
 Report Start       	0:00 
 Start ClockTime    	0:00:00
 Statistic          	NONE

[REPORT]
 Status             	Full
 Summary            	No
 Page               	0

[OPTIONS]
 Units              	CMH
 Headloss           	D-W
 Specific Gravity   	1.000000
 Viscosity          	1.000000
 Trials             	40
 Accuracy           	0.00100000
 CHECKFREQ          	2
 MAXCHECK           	10
 DAMPLIMIT          	0.00000000
 Unbalanced         	Continue 10
 Pattern            	1
 Demand Multiplier  	1.0000
 Emitter Exponent   	0.5000
 Quality            	NONE mg/L
 Diffusivity        	1.000000
 Tolerance          	0.01000000

[COORDINATES]
;Node            	X-Coord           	Y-Coord
1               	731.970           	673.190           
2               	704.570           	650.950           
3               	731.100           	626.660           
4               	443.190           	744.820           
5               	538.040           	639.720           
6               	380.910           	737.690           
7               	494.340           	641.570           
8               	484.930           	667.170           
9               	447.250           	666.870           
10              	719.030           	517.130           
11              	420.270           	666.030           
12              	251.580           	726.200           
13              	710.620           	465.670           
14              	-19.430           	0.230             
15              	223.930           	673.200           
16              	145.830           	674.050           
17              	427.060           	613.890           
18              	363.900           	665.880           
19              	-0.630            	621.980           
20              	348.910           	666.090           
21              	528.230           	535.250           
22              	638.260           	414.450           
23              	34.730            	676.020           
24              	70.210            	633.350           
25              	344.120           	623.360           
26              	522.520           	489.830           
27              	286.600           	665.380           
28              	698.440           	355.260           
29              	425.550           	521.360           
30              	535.810           	424.610           
31              	328.770           	562.660           
32              	513.010           	428.280           
33              	227.070           	588.390           
34              	448.150           	438.120           
35              	531.510           	363.750           
36              	688.410           	278.680           
37              	441.260           	406.570           
38              	395.170           	417.320           
39              	582.560           	287.220           
40              	390.850           	403.660           
41              	524.320           	292.710           
42              	351.440           	412.460           
43              	221.400           	482.600           
44              	98.660            	567.850           
45              	472.620           	298.640           
46              	426.390           	307.830           
47              	55.620            	562.000           
48              	670.660           	130.070           
49              	267.970           	327.230           
50              	371.290           	308.910           
51              	322.960           	324.190           
52              	318.600           	307.810           
53              	574.450           	118.260           
54              	576.870           	65.730            
55              	606.690           	31.560            
56              	0.940             	497.610           
57              	1.560             	467.120           
58              	64.160            	481.230           
59              	119.800           	360.560           
60              	467.030           	113.310           
61              	404.850           	126.250           
62              	-2.040            	552.080           
63              	367.970           	135.360           
64              	145.300           	287.490           
65              	338.210           	143.740           
66              	213.350           	212.050           
67              	285.660           	155.210           
68              	353.050           	90.780            
69              	261.400           	158.220           
70              	-43.950           	488.660           
71              	207.850           	168.000           
72              	371.700           	48.430            
73              	195.630           	166.800           
74              	342.510           	51.770            
75              	254.220           	97.000            
76              	90.170            	179.420           
77              	222.390           	100.410           
78              	4.850             	377.780           
79              	178.730           	111.230           
80              	326.270           	4.830             
81              	219.360           	72.860            
82              	-1.620            	219.530           
83              	232.200           	26.610            
84              	230.630           	3.940             
85              	207.390           	2.820             
86              	161.720           	-1.340            
87              	112.420           	-6.910            
88              	-2.890            	76.690            
89              	96.240            	-6.380            
90              	0.000             	0.000             
R-1             	142.850           	760.000           
R-2             	615.919           	-16.768           

[VERTICES]
;Link            	X-Coord           	Y-Coord

[LABELS]
;X-Coord             Y-Coord             Label & Anchor Node

[BACKDROP]
  DIMENSIONS  	-82.750           	-45.260           	770.770           	798.340           
 UNITS          	None
 FILE           	
 OFFSET         	0.00            	0.00            

[END]
