[TITLE]
DESCRIPTION  
 DESCRIPTION  

[JUNCTIONS]
 1                                    10.0000
 2                                    10.2066
 3                                     8.0000
 4                                    10.3304
 5                                    10.0000
 6                                    11.4204
 7                                    10.0000
 8                                    10.0000
 9                                    10.0000
 10                                    6.0000
 11                                    9.6258
 12                                   10.7044
 13                                    6.0000
 14                                    4.0000
 15                                   10.8638
 16                                   10.9002
 17                                    8.0000
 18                                    9.0738
 19                                   11.7501
 20                                    9.0448
 21                                    8.4986
 22                                    6.5178
 23                                   11.0676
 24                                   10.9409
 25                                    8.2174
 26                                    7.8558
 27                                    8.7833
 28                                    4.7973
 29                                    8.0000
 30                                    6.5252
 31                                    7.4202
 32                                    6.6906
 33                                    7.5703
 34                                    6.8307
 35                                    5.6450
 36                                    3.8051
 37                                    6.7843
 38                                    6.0000
 39                                    4.3293
 40                                    6.0000
 41                                    4.8989
 42                                    6.0000
 43                                    6.0000
 44                                    7.7923
 45                                    5.0957
 46                                    5.4284
 47                                    8.0000
 48                                    2.0000
 49                                    6.0000
 50                                    5.4429
 51                                    5.5449
 52                                    5.5153
 53                                    2.2205
 54                                    2.0000
 55                                    2.0000
 56                                    6.8929
 57                                    6.8776
 58                                    6.4676
 59                                    6.0000
 60                                    3.8157
 61                                    4.0000
 62                                    8.0000
 63                                    4.0000
 64                                    8.0000
 65                                    4.0000
 66                                    4.0000
 67                                    4.0000
 68                                    4.0000
 69                                    4.0000
 70                                    8.0000
 71                                    4.0000
 72                                    4.0000
 73                                    4.0000
 74                                    4.0000
 75                                    4.0000
 76                                    8.0000
 77                                    4.0000
 78                                    8.0000
 79                                    4.0000
 80                                    4.0000
 81                                    4.0000
 82                                    8.0000
 83                                    4.0000
 84                                    4.0000
 85                                    4.0000
 86                                    4.0000
 87                                    4.0000
 88                                    4.0000
 89                                    4.0000
 90                                    4.0000

[RESERVOIRS]
 R-1                                  53.7000                                
 R-2                                  55.0000                                

[TANKS]

[PIPES]
 1                               1                               2                                    61.6238     100.0000       1.5000       0.0000       
 2                               3                               1                                    87.9854      99.4000       1.5000       0.0000       
 3                               3                               5                                   197.2303      99.4000       1.5000       0.0000       
 4                               7                               5                                    41.3387     100.0000       1.5000       0.0000       
 5                               8                               7                                    14.6813     100.0000       1.5000       0.0000       
 6                               1                               8                                   341.0429     100.0000       1.5000       0.0000        ; 
 7                               9                               8                                    16.0318     100.0000       1.5000       0.0000        ; 
 8                               10                              3                                   118.9680      99.4000       1.5000       0.0000       
 9                               9                               11                                   24.9324     150.0000       1.5000       0.0000       
 10                              11                              4                                    63.4383     144.6000       1.5000       0.0000       
 11                              13                              10                                   35.4938     100.0000       1.5000       0.0000       
 12                              15                              12                                   70.5392      99.4000       1.5000       0.0000       
 13                              15                              16                                    5.5032     200.0000       1.5000       0.0000       
 14                              R-1                             16                                   67.3193     200.0000       1.5000       0.0000 CV    
 15                              17                              9                                    73.7128     150.0000       1.5000       0.0000       
 16                              11                              18                                   89.3468     150.0000       1.5000       0.0000       
 17                              18                              6                                   108.5024     100.0000       1.5000       0.0000       
 18                              20                              18                                   14.9911     150.0000       1.5000       0.0000       
 19                              10                              21                                  184.0649     100.0000       1.5000       0.0000       
 20                              21                              5                                   126.7762     100.0000       1.5000       0.0000       
 21                              16                              23                                   80.7617     100.0000       1.5000       0.0000       
 22                              19                              23                                   34.0640     100.0000       1.5000       0.0000       
 23                              23                              24                                    7.4791     100.0000       1.5000       0.0000       
 24                              25                              17                                  101.0651     100.0000       1.5000       0.0000       
 25                              25                              20                                   35.0531     100.0000       1.5000       0.0000       
 26                              13                              26                                  183.0910     100.0000       1.5000       0.0000       
 27                              26                              21                                   35.2050     100.0000       1.5000       0.0000       
 28                              27                              20                                   63.0074     150.0000       1.5000       0.0000       
 29                              27                              15                                   86.1500     200.0000       1.5000       0.0000       
 30                              28                              13                                  119.0014     100.0000       1.5000       0.0000       
 31                              30                              22                                  130.4395     100.0000       1.5000       0.0000       
 32                              31                              25                                   71.1517     100.0000       1.5000       0.0000       
 33                              30                              32                                   23.1010     100.0000       1.5000       0.0000       
 34                              32                              26                                   75.0654     100.0000       1.5000       0.0000       
 35                              33                              31                                  105.3046     100.0000       1.5000       0.0000       
 36                              33                              27                                  126.2605     150.0000       1.5000       0.0000       
 37                              32                              34                                   74.5227     100.0000       1.5000       0.0000       
 38                              34                              7                                   273.4008     100.0000       1.5000       0.0000       
 39                              28                              35                                  147.8053     100.0000       1.5000       0.0000       
 40                              35                              30                                   61.9362     100.0000       1.5000       0.0000       
 41                              36                              28                                   88.6683     100.0000       1.5000       0.0000       
 42                              34                              37                                   13.9204     100.0000       1.5000       0.0000       
 43                              37                              38                                   45.3667     100.0000       1.5000       0.0000       
 44                              38                              29                                  114.8319     100.0000       1.5000       0.0000       
 45                              39                              36                                   80.4201     100.0000       1.5000       0.0000       
 46                              40                              38                                    6.1730     100.0000       1.5000       0.0000       
 47                              39                              41                                   48.4080     100.0000       1.5000       0.0000       
 48                              41                              35                                   70.4866     100.0000       1.5000       0.0000       
 49                              42                              40                                   40.7468     100.0000       1.5000       0.0000       
 50                              42                              17                                  220.2600     150.0000       1.5000       0.0000       
 51                              43                              31                                  181.6666     100.0000       1.5000       0.0000       
 52                              43                              33                                  105.9326     150.0000       1.5000       0.0000       
 53                              44                              33                                  130.1373     100.0000       1.5000       0.0000       
 54                              41                              45                                   52.0289     100.0000       1.5000       0.0000       
 55                              45                              46                                   43.9151     100.0000       1.5000       0.0000       
 56                              46                              37                                  117.9373     100.0000       1.5000       0.0000       
 57                              44                              47                                   42.4541     100.0000       1.5000       0.0000       
 58                              48                              36                                  159.3616     100.0000       1.5000       0.0000       
 59                              50                              40                                   98.4233     100.0000       1.5000       0.0000       
 60                              51                              50                                   50.6748      99.4000       1.5000       0.0000       
 61                              51                              42                                   92.7581     150.0000       1.5000       0.0000       
 62                              52                              51                                    4.2263     150.0000       1.5000       0.0000       
 63                              53                              48                                   70.0990     100.0000       1.5000       0.0000       
 64                              53                              39                                  175.9038     100.0000       1.5000       0.0000       
 65                              49                              52                                  122.4354     100.0000       1.5000       0.0000       
 66                              48                              55                                  120.1706     100.0000       1.5000       0.0000       
 67                              54                              55                                   38.1498     100.0000       1.5000       0.0000       
 68                              57                              56                                   33.8685     100.0000       1.5000       0.0000       
 69                              57                              58                                   22.7685     100.0000       1.5000       0.0000       
 70                              59                              44                                  228.7123     100.0000       1.5000       0.0000       
 71                              59                              57                                  157.0009     100.0000       1.5000       0.0000       
 72                              60                              53                                  127.3102     100.0000       1.5000       0.0000       
 73                              60                              45                                  196.0299     100.0000       1.5000       0.0000       
 74                              60                              61                                   64.9151     100.0000       1.5000       0.0000       
 75                              61                              46                                  185.2207     100.0000       1.5000       0.0000       
 76                              56                              62                                  125.1785     100.0000       1.5000       0.0000       
 77                              61                              63                                    5.1596     100.0000       1.5000       0.0000       
 78                              64                              59                                   78.5465     100.0000       1.5000       0.0000       
 79                              65                              63                                   63.4474     100.0000       1.5000       0.0000       
 80                              65                              50                                  168.4795     100.0000       1.5000       0.0000       
 81                              67                              65                                   52.7231     100.0000       1.5000       0.0000       
 82                              52                              67                                  173.2530     150.0000       1.5000       0.0000       
 83                              64                              66                                  108.3586     100.0000       1.5000       0.0000       
 84                              68                              63                                   53.6681     100.0000       1.5000       0.0000       
 85                              69                              67                                   30.3437      66.0000       1.5000       0.0000       
 86                              56                              70                                  357.2045     100.0000       1.5000       0.0000       
 87                              71                              69                                   50.1133     150.0000       1.5000       0.0000       
 88                              71                              66                                   44.3966     150.0000       1.5000       0.0000       
 89                              73                              71                                   14.4326     100.0000       1.5000       0.0000       
 90                              72                              74                                   25.4148     100.0000       1.5000       0.0000       
 91                              68                              74                                   43.1115     100.0000       1.5000       0.0000       
 92                              75                              68                                   92.0796     100.0000       1.5000       0.0000       
 93                              69                              75                                   87.1668      55.4000       1.5000       0.0000       
 94                              76                              73                                   91.3315     100.0000       1.5000       0.0000       
 95                              77                              75                                   68.0803     100.0000       1.5000       0.0000       
 96                              79                              77                                   35.8191     100.0000       1.5000       0.0000       
 97                              73                              79                                   58.0994     100.0000       1.5000       0.0000       
 98                              80                              55                                  285.4089     100.0000       1.5000       0.0000       
 99                              80                              74                                   60.7011     100.0000       1.5000       0.0000       
 100                             76                              79                                  107.8067     100.0000       1.5000       0.0000       
 101                             77                              81                                   43.8148      99.4000       1.5000       0.0000       
 102                             76                              82                                  116.3783     100.0000       1.5000       0.0000       
 103                             82                              64                                  185.0629     100.0000       1.5000       0.0000       
 104                             82                              78                                  207.0173     100.0000       1.5000       0.0000       
 105                             84                              80                                  107.0663     100.0000       1.5000       0.0000       
 106                             84                              83                                    8.4143      99.4000       1.5000       0.0000       
 107                             85                              84                                   13.3542     100.0000       1.5000       0.0000       
 108                             79                              86                                   95.5255     100.0000       1.5000       0.0000       
 109                             86                              85                                   48.6061     100.0000       1.5000       0.0000       
 110                             86                              87                                   62.7673     100.0000       1.5000       0.0000       
 111                             88                              82                                  181.3773     100.0000       1.5000       0.0000       
 112                             87                              89                                   16.2002     100.0000       1.5000       0.0000       
 113                             89                              88                                  163.0582     100.0000       1.5000       0.0000       
 114                             88                              90                                   87.0021     100.0000       1.5000       0.0000       
 115                             90                              89                                   92.1985     100.0000       1.5000       0.0000       
 116                             90                              14                                    8.8630     100.0000       1.5000       0.0000       
 117                             47                              62                                   50.0000     100.0000       1.5000       0.0000       
 118                             57                              78                                   90.0000     100.0000       1.5000       0.0000       
 119                             19                              62                                   40.0000     100.0000       1.5000       0.0000       
 120                             66                              43                                  275.0567     150.0000       1.5000       0.0000       
 121                             R-2                             55                                   60.0000     200.0000     100.0000       0.0000 CV    

[PUMPS]

[VALVES]

[DEMANDS]
 1                                     1.007988  one_pattern                    
 2                                     0.755991  one_pattern                    
 3                                     0.719992  one_pattern                    
 4                                     0.287997  one_pattern                    
 5                                     1.223986  one_pattern                    
 6                                     0.503994  one_pattern                    
 7                                     0.323996  one_pattern                    
 8                                     0.107999  one_pattern                    
 9                                     0.179998  one_pattern                    
 10                                    0.683992  one_pattern                    
 11                                    0.251997  one_pattern                    
 12                                    0.215997  one_pattern                    
 13                                    0.539994  one_pattern                    
 14                                    1.655981  one_pattern                    
 15                                    0.251997  one_pattern                    
 16                                    0.251997  one_pattern                    
 17                                    0.611993  one_pattern                    
 18                                    0.179998  one_pattern                    
 19                                    0.503994  one_pattern                    
 20                                    0.143998  one_pattern                    
 21                                    1.007988  one_pattern                    
 22                                    0.359996  one_pattern                    
 23                                    0.611993  one_pattern                    
 24                                    0.287997  one_pattern                    
 25                                    0.359996  one_pattern                    
 26                                    0.575993  one_pattern                    
 27                                    0.287997  one_pattern                    
 28                                    0.647992  one_pattern                    
 29                                    1.115987  one_pattern                    
 30                                    0.539994  one_pattern                    
 31                                    0.863990  one_pattern                    
 32                                    0.251997  one_pattern                    
 33                                    1.511982  one_pattern                    
 34                                    0.215997  one_pattern                    
 35                                    0.827990  one_pattern                    
 36                                    0.719992  one_pattern                    
 37                                    0.539994  one_pattern                    
 38                                    0.359996  one_pattern                    
 39                                    1.223986  one_pattern                    
 40                                    0.287997  one_pattern                    
 41                                    0.683992  one_pattern                    
 42                                    1.079987  one_pattern                    
 43                                    1.079987  one_pattern                    
 44                                    0.791991  one_pattern                    
 45                                    0.791991  one_pattern                    
 46                                    1.331984  one_pattern                    
 47                                    0.251997  one_pattern                    
 48                                    0.719992  one_pattern                    
 49                                    0.503994  one_pattern                    
 50                                    0.647992  one_pattern                    
 51                                    0.215997  one_pattern                    
 52                                    0.359996  one_pattern                    
 53                                    0.827990  one_pattern                    
 54                                    1.403983  one_pattern                    
 55                                    0.683992  one_pattern                    
 56                                    0.179998  one_pattern                    
 57                                    0.611993  one_pattern                    
 58                                    0.107999  one_pattern                    
 59                                    1.295985  one_pattern                    
 60                                    0.971989  one_pattern                    
 61                                    0.215997  one_pattern                    
 62                                    0.323996  one_pattern                    
 63                                    0.683992  one_pattern                    
 64                                    0.971989  one_pattern                    
 65                                    0.539994  one_pattern                    
 66                                    1.115987  one_pattern                    
 67                                    0.179998  one_pattern                    
 68                                    0.000000  one_pattern                    
 69                                    0.143998  one_pattern                    
 70                                    0.107999  one_pattern                    
 71                                    0.107999  one_pattern                    
 72                                    0.431995  one_pattern                    
 73                                    0.215997  one_pattern                    
 74                                    0.000000  one_pattern                    
 75                                    0.000000  one_pattern                    
 76                                    0.719992  one_pattern                    
 77                                    0.000000  one_pattern                    
 78                                    0.503994  one_pattern                    
 79                                    0.215997  one_pattern                    